17
Coordinates from ORCA-job optimization
  C   -2.38510802823019     -0.73027545155756     -0.00000601310616
  C   -2.42436426805691      0.68026733271112     -0.00000029454553
  C   -1.16477113226616     -1.41294829278466     -0.00000361743093
  C   -1.23292306469612      1.40673162585920      0.00000825541027
  C   0.03400302765525     -0.67842859906106      0.00000837805376
  C   0.01704930670476      0.74275531251334      0.00001510830779
  O   1.20161984066267     -1.37440529973926      0.00001968236698
  C   1.29104762133115      1.41800020120951      0.00000618015973
  C   2.47195848289609     -0.75546670347669      0.00007273624128
  C   2.45583143769290      0.70693633644588      0.00000747783251
  H   -3.32407292330132     -1.30403629799252     -0.00001443095274
  H   -3.39113484116821      1.20419467054260     -0.00000545868236
  H   -1.11069738030887     -2.51059612365748     -0.00000777770916
  H   -1.24657213077355      2.50766275247157      0.00000724092060
  H   1.30672466932562      2.51988509580026     -0.00001746293507
  O   3.44736236806985     -1.47222899112646     -0.00005894358289
  H   3.44281001446307      1.18919043184220     -0.00003006034808
