    17
Dimensions = 3; PeriodicDimensions = 0; BoxShape = parallelepiped; Lengths [A] = [  18.840000,  17.030000,  12.000000]
C                 -2.385108   -0.730275   -0.000006
C                 -2.424364    0.680267   -0.000000
C                 -1.164771   -1.412948   -0.000004
C                 -1.232923    1.406732    0.000008
C                  0.034003   -0.678429    0.000008
C                  0.017049    0.742755    0.000015
O                  1.201620   -1.374405    0.000020
C                  1.291048    1.418000    0.000006
C                  2.471958   -0.755467    0.000073
C                  2.455831    0.706936    0.000007
H                 -3.324073   -1.304036   -0.000014
H                 -3.391135    1.204195   -0.000005
H                 -1.110697   -2.510596   -0.000008
H                 -1.246572    2.507663    0.000007
H                  1.306725    2.519885   -0.000017
O                  3.447362   -1.472229   -0.000059
H                  3.442810    1.189190   -0.000030
